# File generated by Flopy version 3.9.5 on 04/16/2026 at 15:08:54.
BEGIN options
  SAVE_SPECIFIC_DISCHARGE
END options

BEGIN griddata
  icelltype
    CONSTANT  0
  k
    INTERNAL  FACTOR  1.0
         0.30000001       0.30000001       0.30000001       0.30000001       0.30000001       0.30000001       0.30000001       0.30000001       0.30000001       0.30000001
         0.30000001       0.30000001       0.30000001       0.30000001       0.30000001       0.30000001       0.30000001       0.30000001       0.30000001       0.30000001
         0.30000001       0.30000001       0.30000001       0.30000001       0.30000001       0.30000001       0.30000001       0.30000001       0.30000001       0.30000001
         0.30000001       0.30000001       0.30000001       0.30000001       0.30000001       0.30000001       0.30000001       0.30000001       0.30000001       0.30000001
         0.30000001       0.30000001       0.30000001       0.30000001       0.30000001       0.30000001       0.30000001       0.30000001       0.30000001       0.30000001
         0.30000001       0.30000001       0.30000001       0.30000001       0.30000001       0.30000001       0.30000001       0.30000001       0.30000001       0.30000001
         0.30000001       0.30000001       0.30000001       0.30000001       0.30000001       0.30000001       0.30000001       0.30000001       0.30000001       0.30000001
         0.30000001       0.30000001       0.30000001       0.30000001       0.30000001       0.30000001       0.30000001       0.30000001       0.30000001       0.30000001
         0.30000001       0.30000001       0.30000001       0.30000001       0.30000001       0.30000001       0.30000001       0.30000001       0.30000001       0.30000001
         0.30000001       0.30000001       0.30000001       0.30000001       0.30000001       0.30000001       0.30000001       0.30000001       0.30000001       0.30000001
  k33
    INTERNAL  FACTOR  1.0
         0.30000001       0.30000001       0.30000001       0.30000001       0.30000001       0.30000001       0.30000001       0.30000001       0.30000001       0.30000001
         0.30000001       0.30000001       0.30000001       0.30000001       0.30000001       0.30000001       0.30000001       0.30000001       0.30000001       0.30000001
         0.30000001       0.30000001       0.30000001       0.30000001       0.30000001       0.30000001       0.30000001       0.30000001       0.30000001       0.30000001
         0.30000001       0.30000001       0.30000001       0.30000001       0.30000001       0.30000001       0.30000001       0.30000001       0.30000001       0.30000001
         0.30000001       0.30000001       0.30000001       0.30000001       0.30000001       0.30000001       0.30000001       0.30000001       0.30000001       0.30000001
         0.30000001       0.30000001       0.30000001       0.30000001       0.30000001       0.30000001       0.30000001       0.30000001       0.30000001       0.30000001
         0.30000001       0.30000001       0.30000001       0.30000001       0.30000001       0.30000001       0.30000001       0.30000001       0.30000001       0.30000001
         0.30000001       0.30000001       0.30000001       0.30000001       0.30000001       0.30000001       0.30000001       0.30000001       0.30000001       0.30000001
         0.30000001       0.30000001       0.30000001       0.30000001       0.30000001       0.30000001       0.30000001       0.30000001       0.30000001       0.30000001
         0.30000001       0.30000001       0.30000001       0.30000001       0.30000001       0.30000001       0.30000001       0.30000001       0.30000001       0.30000001
END griddata

