# File generated by Flopy version 3.9.5 on 04/16/2026 at 15:08:54.
BEGIN options
  LENGTH_UNITS  meters
END options

BEGIN dimensions
  NLAY  1
  NROW  10
  NCOL  10
END dimensions

BEGIN griddata
  delr
    CONSTANT      10.00000000
  delc
    CONSTANT      10.00000000
  top
    INTERNAL  FACTOR  1.0
       100.00000000     100.00000000     100.00000000     100.00000000     100.00000000     100.00000000     100.00000000     100.00000000     100.00000000     100.00000000
       100.00000000     100.00000000     100.00000000     100.00000000     100.00000000     100.00000000     100.00000000     100.00000000     100.00000000     100.00000000
       100.00000000     100.00000000     100.00000000     100.00000000     100.00000000     100.00000000     100.00000000     100.00000000     100.00000000     100.00000000
       100.00000000     100.00000000     100.00000000     100.00000000     100.00000000     100.00000000     100.00000000     100.00000000     100.00000000     100.00000000
       100.00000000     100.00000000     100.00000000     100.00000000     100.00000000     100.00000000     100.00000000     100.00000000     100.00000000     100.00000000
       100.00000000     100.00000000     100.00000000     100.00000000     100.00000000     100.00000000     100.00000000     100.00000000     100.00000000     100.00000000
       100.00000000     100.00000000     100.00000000     100.00000000     100.00000000     100.00000000     100.00000000     100.00000000     100.00000000     100.00000000
       100.00000000     100.00000000     100.00000000     100.00000000     100.00000000     100.00000000     100.00000000     100.00000000     100.00000000     100.00000000
       100.00000000     100.00000000     100.00000000     100.00000000     100.00000000     100.00000000     100.00000000     100.00000000     100.00000000     100.00000000
       100.00000000     100.00000000     100.00000000     100.00000000     100.00000000     100.00000000     100.00000000     100.00000000     100.00000000     100.00000000
  botm
    INTERNAL  FACTOR  1.0
        -5.00000000      -5.00000000      -5.00000000      -5.00000000      -5.00000000      -5.00000000      -5.00000000      -5.00000000      -5.00000000      -5.00000000
        -5.00000000      -5.00000000      -5.00000000      -5.00000000      -5.00000000      -5.00000000      -5.00000000      -5.00000000      -5.00000000      -5.00000000
        -5.00000000      -5.00000000      -5.00000000      -5.00000000      -5.00000000      -5.00000000      -5.00000000      -5.00000000      -5.00000000      -5.00000000
        -5.00000000      -5.00000000      -5.00000000      -5.00000000      -5.00000000      -5.00000000      -5.00000000      -5.00000000      -5.00000000      -5.00000000
        -5.00000000      -5.00000000      -5.00000000      -5.00000000      -5.00000000      -5.00000000      -5.00000000      -5.00000000      -5.00000000      -5.00000000
        -5.00000000      -5.00000000      -5.00000000      -5.00000000      -5.00000000      -5.00000000      -5.00000000      -5.00000000      -5.00000000      -5.00000000
        -5.00000000      -5.00000000      -5.00000000      -5.00000000      -5.00000000      -5.00000000      -5.00000000      -5.00000000      -5.00000000      -5.00000000
        -5.00000000      -5.00000000      -5.00000000      -5.00000000      -5.00000000      -5.00000000      -5.00000000      -5.00000000      -5.00000000      -5.00000000
        -5.00000000      -5.00000000      -5.00000000      -5.00000000      -5.00000000      -5.00000000      -5.00000000      -5.00000000      -5.00000000      -5.00000000
        -5.00000000      -5.00000000      -5.00000000      -5.00000000      -5.00000000      -5.00000000      -5.00000000      -5.00000000      -5.00000000      -5.00000000
  idomain
    INTERNAL  FACTOR  1
    1  1  1  1  1  1  1  1  1  1
    1  1  1  1  1  1  1  1  1  1
    1  1  1  1  1  1  1  1  1  1
    1  1  1  1  1  1  1  1  1  1
    1  1  1  1  1  1  1  1  1  1
    1  1  1  1  1  1  1  1  1  1
    1  1  1  1  1  1  1  1  1  1
    1  1  1  1  1  1  1  1  1  1
    1  1  1  1  1  1  1  1  1  1
    1  1  1  1  1  1  1  1  1  1
END griddata

