# File generated by Flopy version 3.9.5 on 04/16/2026 at 16:34:01.
BEGIN options
  SAVE_FLOWS
END options

BEGIN packages
  DIS6  gwf.dis  dis
  NPF6  gwf.npf  npf
  IC6  gwf.ic  ic
  STO6  gwf.sto  sto
  CHD6  gwf.chd  chd-1
  WEL6  gwf.wel  wel-1
  OC6  gwf.oc  oc
END packages

