# File generated by Flopy version 3.9.5 on 04/15/2026 at 17:59:47.
BEGIN options
  LENGTH_UNITS  meters
END options

BEGIN dimensions
  NLAY  1
  NROW  10
  NCOL  10
END dimensions

BEGIN griddata
  delr
    CONSTANT      10.00000000
  delc
    CONSTANT      10.00000000
  top
    CONSTANT     100.00000000
  botm
    CONSTANT       0.00000000
  idomain
    INTERNAL  FACTOR  1
    1  1  1  1  1  1  1  1  1  1
    1  1  1  1  1  1  1  1  1  1
    1  1  1  1  1  1  1  1  1  1
    1  1  1  1  1  1  1  1  1  1
    1  1  1  1  1  1  1  1  1  1
    1  1  1  1  1  1  1  1  1  1
    1  1  1  1  1  1  1  1  1  1
    1  1  1  1  1  1  1  1  1  1
    1  1  1  1  1  1  1  1  1  1
    1  1  1  1  1  1  1  1  1  1
END griddata

