# File generated by Flopy version 3.9.5 on 04/16/2026 at 15:08:54.
BEGIN options
END options

BEGIN dimensions
  MAXBOUND  2
END dimensions

BEGIN period  1
  1 6 6 0.00000000E+00
  1 5 7 0.00000000E+00
END period  1

