# File generated by Flopy version 3.9.5 on 04/15/2026 at 17:59:47.
BEGIN options
  SAVE_SPECIFIC_DISCHARGE
END options

BEGIN griddata
  icelltype
    CONSTANT  0
  k
    CONSTANT       0.30000000
  k33
    CONSTANT       0.30000000
END griddata

