# File generated by Flopy version 3.9.5 on 04/15/2026 at 17:59:47.
BEGIN options
  SAVE_FLOWS
END options

BEGIN packages
  DIS6  gwf.dis  dis
  NPF6  gwf.npf  npf
  IC6  gwf.ic  ic
END packages

