# File generated by Flopy version 3.9.5 on 04/16/2026 at 15:08:54.
BEGIN options
  auxiliary  CONCENTRATION
  PRINT_INPUT
  PRINT_FLOWS
END options

BEGIN dimensions
  MAXBOUND  1
END dimensions

BEGIN period  1
  1 3 4 10 10
END period  1

