# File generated by Flopy version 3.9.5 on 04/16/2026 at 15:08:54.
BEGIN options
END options

BEGIN griddata
  iconvert
    CONSTANT  0
  ss
    CONSTANT       0.00000000
  sy
    CONSTANT       0.00000000
END griddata

