# File generated by Flopy version 3.9.5 on 04/16/2026 at 16:34:01.
BEGIN options
END options

BEGIN griddata
  porosity
    INTERNAL  FACTOR  1.0
         0.30000001       0.30000001       0.30000001       0.30000001       0.30000001       0.30000001       0.30000001       0.30000001       0.30000001       0.30000001
         0.30000001       0.30000001       0.30000001       0.30000001       0.30000001       0.30000001       0.30000001       0.30000001       0.30000001       0.30000001
         0.30000001       0.30000001       0.30000001       0.30000001       0.30000001       0.30000001       0.30000001       0.30000001       0.30000001       0.30000001
         0.30000001       0.30000001       0.30000001       0.30000001       0.30000001       0.30000001       0.30000001       0.30000001       0.30000001       0.30000001
         0.30000001       0.30000001       0.30000001       0.30000001       0.30000001       0.30000001       0.30000001       0.30000001       0.30000001       0.30000001
         0.30000001       0.30000001       0.30000001       0.30000001       0.30000001       0.30000001       0.30000001       0.30000001       0.30000001       0.30000001
         0.30000001       0.30000001       0.30000001       0.30000001       0.30000001       0.30000001       0.30000001       0.30000001       0.30000001       0.30000001
         0.30000001       0.30000001       0.30000001       0.30000001       0.30000001       0.30000001       0.30000001       0.30000001       0.30000001       0.30000001
         0.30000001       0.30000001       0.30000001       0.30000001       0.30000001       0.30000001       0.30000001       0.30000001       0.30000001       0.30000001
         0.30000001       0.30000001       0.30000001       0.30000001       0.30000001       0.30000001       0.30000001       0.30000001       0.30000001       0.30000001
END griddata

