# File generated by Flopy version 3.9.5 on 04/16/2026 at 16:34:01.
BEGIN options
  BUDGET  FILEOUT  gwt.cbc
  CONCENTRATION  FILEOUT  gwt.ucn
  CONCENTRATION  PRINT_FORMAT  COLUMNS  10  WIDTH  15  DIGITS  6  GENERAL
END options

BEGIN period  1
  SAVE  CONCENTRATION  ALL
  SAVE  BUDGET  ALL
  PRINT  CONCENTRATION  LAST
  PRINT  BUDGET  LAST
END period  1

