# File generated by Flopy version 3.9.5 on 04/16/2026 at 16:34:01.
BEGIN options
  SAVE_FLOWS
END options

BEGIN packages
  DIS6  gwt.dis  dis
  IC6  gwt.ic  ic
  ADV6  gwt.adv  adv
  MST6  gwt.mst  mst
  CNC6  gwt.cnc  cnc-1
  SSM6  gwt.ssm  ssm
  OC6  gwt.oc  oc
END packages

