# File generated by Flopy version 3.9.5 on 04/15/2026 at 17:59:47.
BEGIN options
END options

BEGIN timing
  TDIS6  test_scenario.tdis
END timing

BEGIN models
  gwf6  gwf.nam  gwf
END models

BEGIN exchanges
END exchanges

BEGIN solutiongroup  1
  ims6  gwf.ims  gwf
END solutiongroup  1

