# File generated by Flopy version 3.9.5 on 04/16/2026 at 16:34:01.
BEGIN options
END options

BEGIN timing
  TDIS6  test_scenario.tdis
END timing

BEGIN models
  gwf6  gwf.nam  gwf
  gwt6  gwt.nam  gwt
END models

BEGIN exchanges
  GWF6-GWT6  test_scenario.gwfgwt  gwf  gwt
END exchanges

BEGIN solutiongroup  1
  ims6  gwf.ims  gwf
  ims6  gwt.ims  gwt
END solutiongroup  1

