# File generated by Flopy version 3.9.5 on 04/15/2026 at 17:59:09.
BEGIN options
  SAVE_FLOWS
END options

BEGIN packages
  DIS6  test_scenario_gwf.dis  dis
  NPF6  test_scenario_gwf.npf  npf
  IC6  test_scenario_gwf.ic  ic
END packages

