# File generated by Flopy version 3.9.5 on 04/16/2026 at 15:08:54.
BEGIN options
  TIME_UNITS  days
END options

BEGIN dimensions
  NPER  12
END dimensions

BEGIN perioddata
      30.00000000  30       1.00000000
      30.00000000  30       1.00000000
      30.00000000  30       1.00000000
      30.00000000  30       1.00000000
      30.00000000  30       1.00000000
      30.00000000  30       1.00000000
      30.00000000  30       1.00000000
      30.00000000  30       1.00000000
      30.00000000  30       1.00000000
      30.00000000  30       1.00000000
      30.00000000  30       1.00000000
      30.00000000  30       1.00000000
END perioddata

