# File generated by Flopy version 3.9.5 on 04/15/2026 at 17:59:09.
BEGIN options
END options

BEGIN griddata
  strt
    CONSTANT       0.00000000
END griddata

